examples/PSSE/Example2-TfixLS_No_Fault.log

PSS(R)E PROGRAM APPLICATION GUIDE EXAMPLE
BASE CASE INCLUDING SEQUENCE DATA

The Saved Case in file C:\Users\harwoodh\LocalDocuments\LMWG_CMLD_Example\Example1.cnv was saved on MON, OCT 13 2025  17:12

The following option settings are changed to the settings contained in the Saved Case File:

** [OPF] APPLY FUEL COST OBJECTIVE option setting set to YES

** [OPF] APPLY ADJUSTABLE BRANCH REACTANCE OBJECTIVE option setting set to YES

** [OPF] CONSTRAIN INTERFACE FLOWS option setting set to YES

** [OPF] AUTOMATIC SCALING option setting set to YES

** [OPF] DUAL VARIABLE CONVERGENCE CRITERIA option setting set to YES

** [OPF] NUMBER OF BAD ITERATIONS WHEN MU>-2 option setting set to 10

** [OPF] NUMBER OF BAD ITERATIONS WHEN MU<=-2 option setting set to 20

** [OPF] PRODUCE AN OPF LOG FILE option setting set to YES

** [OPF] ADD SOLUTION DETAILS TO OPF LOG FILE option setting set to YES

The Snapshot at TIME = 0.0 in file C:\Users\harwoodh\LocalDocuments\LMWG_CMLD_Example\Example2-TfixLS.snp was saved on TUE, OCT 14 2025   8:49

NUMBER OF ELEMENTS RESTORED:
   CONS  STATES    VARS   ICONS  CHANNELS
    858     208     878     255       0

Case title line 1 changed from "PSS(R)E PROGRAM APPLICATION GUIDE EXAMPLE"
                            to "EXAMPLE1.CNV"

Case title line 2 changed from "BASE CASE INCLUDING SEQUENCE DATA"
                            to "NO_FAULT"

There are no Plot Channels for deletion

4 Output channels have been added


Next available addresses are:
  CHANNEL    VAR    ICON
       5     879     256

4 Output channels have been added


Next available addresses are:
  CHANNEL    VAR    ICON
       9     883     260

5 Output channels have been added


Next available addresses are:
  CHANNEL    VAR    ICON
      14     888     261

23 diagonal and 41 off-diagonal elements

Models have removed constant admittance load and/or machines--REFACTORIZING

23 diagonal and 41 off-diagonal elements

    PTI INTERACTIVE POWER SYSTEM SIMULATOR--PSS(R)E     TUE, OCT 14 2025   8:55
EXAMPLE1.CNV
NO_FAULT

INITIAL CONDITION LOAD FLOW USED 1 ITERATIONS

----------------------------- MACHINE INITIAL CONDITIONS -----------------------------
  BUS#-SCT X-- NAME --X BASKV ID  ETERM   EFD    POWER    VARS   P.F.  ANGLE     ID      IQ
   101     NUC-A       21.600 1  1.0200 1.9983  750.00   47.38 0.9980  64.87   0.6469   0.5016
   102     NUC-B       21.600 1  1.0200 1.9983  750.00   47.38 0.9980  64.87   0.6469   0.5016
   206     URBGEN      18.000 1  1.0400 2.4021  800.00  493.17 0.8513  24.87   0.7785   0.4589
   211     HYDRO_G     20.000 1  1.0207 1.2916  600.00 -100.00 0.9864  46.18   0.3324   0.7518
  3011     MINE_G      13.800 1  1.0400 1.3483  255.10   46.38 0.9839  17.11   0.1148   0.2213
  3018     CATDOG_G    13.800 1  1.0487 2.9821  100.00   80.00 0.7809  21.58   0.8467   0.4070

INITIAL CONDITIONS CHECK O.K.

Channel output file is "C:\Users\harwoodh\LocalDocuments\LMWG_CMLD_Example\Example2-TfixLS_No_Fault.out"

Channel output file is "C:\Users\harwoodh\LocalDocuments\LMWG_CMLD_Example\Example2-TfixLS_No_Fault.out"

   TIME X- VALUE --X X--------- IDENTIFIER ---------X X- VALUE --X X--------- IDENTIFIER ---------X
-0.0167   0.0000     FREQ    151 [NUCPANT     500.00]   0.0000     FREQ    152 [MID500      500.00]
    3     0.0000     FREQ    153 [MID230      230.00]   0.0000     FREQ    154 [DOWNTN      230.00]
    5     1.0164     VOLT    151 [NUCPANT     500.00]   1.0358     VOLT    152 [MID500      500.00]
    7     1.0148     VOLT    153 [MID230      230.00]  0.97464     VOLT    154 [DOWNTN      230.00]
    9     1512.1     PMECH AREA    1 [FLAPCO      ]     1500.0     PELEC AREA    1 [FLAPCO      ]
   11    6.10352E-04 PACCL AREA    1 [FLAPCO      ]     200.00     PLOAD AREA    1 [FLAPCO      ]
   13     1300.0     PE-PL AREA    1 [FLAPCO      ]

 1.0000 -1.20967E-06 -1.34924E-06 -1.39156E-06 -1.56823E-06   1.0164       1.0358
    7     1.0148      0.97465       1512.1       1500.1     -1.09863E-02   200.00
   13     1300.1
Dialogue input from file C:\Users\harwoodh\LocalDocuments\LMWG_CMLD_Example\No_Fault.idv

ACTIVITY? : BAT_TEXT 'FLAT RUN SIMULATION'

ACTIVITY? : 
Response file operation terminated for file C:\Users\harwoodh\LocalDocuments\LMWG_CMLD_Example\No_Fault.idv

ACTIVITY? : 
Channel output file is "C:\Users\harwoodh\LocalDocuments\LMWG_CMLD_Example\Example2-TfixLS_No_Fault.out"
  1  0.45E-01    154     [DOWNTN      230.00]     0.3823E-05     0.2310E-05

   TIME X- VALUE --X X--------- IDENTIFIER ---------X X- VALUE --X X--------- IDENTIFIER ---------X
 1.0000 -1.20967E-06 FREQ    151 [NUCPANT     500.00] -1.34924E-06 FREQ    152 [MID500      500.00]
    3   -1.39156E-06 FREQ    153 [MID230      230.00] -1.56823E-06 FREQ    154 [DOWNTN      230.00]
    5     1.0164     VOLT    151 [NUCPANT     500.00]   1.0358     VOLT    152 [MID500      500.00]
    7     1.0149     VOLT    153 [MID230      230.00]  0.97465     VOLT    154 [DOWNTN      230.00]
    9     1512.1     PMECH AREA    1 [FLAPCO      ]     1500.1     PELEC AREA    1 [FLAPCO      ]
   11   -9.64355E-03 PACCL AREA    1 [FLAPCO      ]     200.01     PLOAD AREA    1 [FLAPCO      ]
   13     1300.0     PE-PL AREA    1 [FLAPCO      ]
  1  0.12        154     [DOWNTN      230.00]     0.3323E-05     0.1199E-04
  1  0.33E-01    203     [EAST230     230.00]     0.3205E-05     0.9139E-06
  1  0.12        205     [SUB230      230.00]     0.1168E-04     0.2044E-05
  1  0.50E-01    205     [SUB230      230.00]    -0.2423E-06    -0.4966E-05
  1  0.17        205     [SUB230      230.00]     0.1831E-05    -0.1715E-04
  1  0.81E-01    154     [DOWNTN      230.00]    -0.6987E-05     0.4031E-05
  1  0.12        154     [DOWNTN      230.00]    -0.1096E-04    -0.4391E-05
  1  0.90E-01    154     [DOWNTN      230.00]     0.5441E-05    -0.7135E-05
  1  0.11        205     [SUB230      230.00]     0.7336E-05    -0.8774E-05
  1  0.28E-01    102     [NUC-B       21.600]     0.1312E-05    -0.2490E-05
  1  0.76E-01    154     [DOWNTN      230.00]    -0.5213E-05    -0.5505E-05
  1  0.70E-01    154     [DOWNTN      230.00]    -0.3172E-05    -0.6283E-05
  1  0.69E-01    205     [SUB230      230.00]    -0.2423E-05    -0.6460E-05
  1  0.73E-01    203     [EAST230     230.00]    -0.2813E-05    -0.6690E-05
  1  0.66E-01    154     [DOWNTN      230.00]    -0.3571E-05    -0.5557E-05
  1  0.13        154     [DOWNTN      230.00]    -0.7945E-05    -0.1044E-04
  1  0.30E-01    102     [NUC-B       21.600]     0.7260E-06    -0.2876E-05
  1  0.47E-01    154     [DOWNTN      230.00]    -0.4557E-05    -0.1004E-05
  1  0.57E-01    154     [DOWNTN      230.00]    -0.5712E-05    -0.2237E-06
  1  0.33E-01   3018     [CATDOG_G    13.800]     0.5496E-06    -0.3223E-05
  1  0.86E-01    205     [SUB230      230.00]     0.7789E-05    -0.3720E-05
  1  0.86E-01    154     [DOWNTN      230.00]     0.7158E-05    -0.4824E-05
  1  0.44E-01    154     [DOWNTN      230.00]    -0.3812E-05    -0.2192E-05
  1  0.13        205     [SUB230      230.00]    -0.7884E-05    -0.1024E-04
  1  0.43E-01   3011     [MINE_G      13.800]    -0.8291E-07    -0.4298E-05
  1  0.10        154     [DOWNTN      230.00]    -0.2955E-05    -0.9432E-05
  1  0.40E-01   3011     [MINE_G      13.800]    -0.3113E-06    -0.4004E-05
  1  0.10        154     [DOWNTN      230.00]    -0.4414E-05    -0.8521E-05
  1  0.45E-01   3011     [MINE_G      13.800]    -0.2886E-07    -0.4500E-05
  1  0.10        154     [DOWNTN      230.00]    -0.4409E-05    -0.9263E-05
  1  0.49E-01   3011     [MINE_G      13.800]    -0.2109E-06    -0.4902E-05
  1  0.12        154     [DOWNTN      230.00]    -0.5047E-05    -0.1060E-04
  1  0.53E-01   3011     [MINE_G      13.800]    -0.6370E-06    -0.5234E-05
  1  0.54E-01   3011     [MINE_G      13.800]    -0.9064E-06    -0.5278E-05
  1  0.78E-01    154     [DOWNTN      230.00]    -0.5195E-05    -0.5861E-05
  1  0.57E-01   3011     [MINE_G      13.800]    -0.4003E-06    -0.5726E-05
  1  0.67E-01   3018     [CATDOG_G    13.800]    -0.4102E-06    -0.6710E-05
  1  0.55E-01   3011     [MINE_G      13.800]    -0.3115E-08    -0.5501E-05
  1  0.58E-01   3011     [MINE_G      13.800]    -0.1009E-05    -0.5735E-05
  1  0.94E-01    154     [DOWNTN      230.00]    -0.4393E-05    -0.8348E-05
  1  0.48E-01   3011     [MINE_G      13.800]     0.2308E-06    -0.4773E-05
  1  0.54E-01   3011     [MINE_G      13.800]    -0.3594E-06    -0.5420E-05
  1  0.69E-01    154     [DOWNTN      230.00]    -0.1194E-05    -0.6784E-05
  1  0.61E-01   3011     [MINE_G      13.800]     0.4597E-06    -0.6067E-05
  1  0.67E-01   3011     [MINE_G      13.800]     0.3922E-06    -0.6694E-05
  1  0.87E-01    205     [SUB230      230.00]    -0.5767E-06    -0.8656E-05
  1  0.44E-01   3011     [MINE_G      13.800]    -0.7472E-06    -0.4296E-05
  1  0.72E-01    154     [DOWNTN      230.00]    -0.7172E-05    -0.8701E-06
  1  0.52E-01   3011     [MINE_G      13.800]    -0.7415E-06    -0.5117E-05
  1  0.65E-01    154     [DOWNTN      230.00]     0.3589E-05    -0.5362E-05
  1  0.14        154     [DOWNTN      230.00]     0.8413E-05    -0.1091E-04
  1  0.47E-01   3011     [MINE_G      13.800]     0.9301E-06    -0.4649E-05
  1  0.79E-01    154     [DOWNTN      230.00]    -0.1373E-05    -0.7752E-05
  1  0.53E-01   3011     [MINE_G      13.800]    -0.8102E-06    -0.5199E-05
  1  0.11        154     [DOWNTN      230.00]    -0.7024E-05    -0.7828E-05
  1  0.61E-01   3011     [MINE_G      13.800]     0.7081E-06    -0.6034E-05
  1  0.12        154     [DOWNTN      230.00]     0.8285E-06    -0.1189E-04
  1  0.47E-01   3011     [MINE_G      13.800]     0.5109E-06    -0.4648E-05
  1  0.60E-01   3011     [MINE_G      13.800]    -0.6896E-06    -0.5932E-05
  1  0.87E-01    154     [DOWNTN      230.00]    -0.3444E-05    -0.8024E-05
  1  0.46E-01   3011     [MINE_G      13.800]     0.7244E-06    -0.4528E-05
  1  0.50E-01   3011     [MINE_G      13.800]     0.2769E-06    -0.4993E-05
  1  0.59E-01   3011     [MINE_G      13.800]     0.9031E-06    -0.5784E-05
  1  0.10        154     [DOWNTN      230.00]     0.2644E-05    -0.9791E-05
  1  0.44E-01   3011     [MINE_G      13.800]     0.2926E-06    -0.4364E-05
  1  0.65E-01    154     [DOWNTN      230.00]    -0.3001E-05    -0.5801E-05
  1  0.77E-01    154     [DOWNTN      230.00]    -0.1677E-05    -0.7516E-05
  1  0.59E-01   3011     [MINE_G      13.800]     0.3641E-06    -0.5906E-05
  1  0.52E-01   3011     [MINE_G      13.800]     0.5849E-06    -0.5208E-05
  1  0.61E-01    152     [MID500      500.00]     0.1321E-05    -0.5982E-05
  1  0.58E-01    211     [HYDRO_G     20.000]     0.2855E-05    -0.5007E-05
  1  0.45E-01    102     [NUC-B       21.600]     0.2363E-05    -0.3887E-05
  1  0.53E-01    211     [HYDRO_G     20.000]     0.1748E-05    -0.4998E-05
  1  0.10        205     [SUB230      230.00]     0.7906E-06    -0.9600E-05
  1  0.47E-01    102     [NUC-B       21.600]     0.2294E-05    -0.4153E-05
  1  0.94E-01    205     [SUB230      230.00]    -0.2796E-05    -0.8949E-05
  1  0.50E-01    102     [NUC-B       21.600]     0.2140E-05    -0.4536E-05
  1  0.83E-01    154     [DOWNTN      230.00]    -0.1628E-05    -0.8116E-05
  1  0.47E-01    102     [NUC-B       21.600]     0.2930E-05    -0.3694E-05
  1  0.54E-01    102     [NUC-B       21.600]     0.3000E-05    -0.4476E-05
  1  0.75E-01    204     [SUB500      500.00]     0.4519E-05    -0.6029E-05
  1  0.57E-01    102     [NUC-B       21.600]     0.3214E-05    -0.4764E-05
  1  0.85E-01    154     [DOWNTN      230.00]    -0.1587E-05    -0.8307E-05
  1  0.74E-01    203     [EAST230     230.00]    -0.1603E-05    -0.7205E-05
  1  0.92E-01    154     [DOWNTN      230.00]    -0.3402E-05    -0.8555E-05
  1  0.59E-01    102     [NUC-B       21.600]     0.1741E-05    -0.5620E-05
  1  0.89E-01    154     [DOWNTN      230.00]    -0.3251E-05    -0.8318E-05
  1  0.53E-01    102     [NUC-B       21.600]     0.2929E-05    -0.4420E-05
  1  0.60E-01    102     [NUC-B       21.600]     0.3178E-05    -0.5082E-05
  1  0.86E-01    154     [DOWNTN      230.00]     0.4068E-05    -0.7571E-05
  1  0.56E-01    102     [NUC-B       21.600]     0.2905E-05    -0.4741E-05
  1  0.10        205     [SUB230      230.00]    -0.9944E-06    -0.1021E-04
  1  0.69E-01    203     [EAST230     230.00]    -0.1863E-05    -0.6651E-05
  1  0.75E-01    203     [EAST230     230.00]    -0.2499E-05    -0.7046E-05
  1  0.73E-01    154     [DOWNTN      230.00]    -0.2212E-05    -0.6974E-05
  1  0.78E-01    152     [MID500      500.00]     0.3295E-06    -0.7803E-05
  1  0.64E-01    102     [NUC-B       21.600]     0.2649E-05    -0.5798E-05
  1  0.80E-01    154     [DOWNTN      230.00]    -0.1005E-05    -0.7910E-05
  1  0.64E-01    102     [NUC-B       21.600]     0.2431E-05    -0.5909E-05
  1  0.10        154     [DOWNTN      230.00]    -0.1289E-05    -0.9614E-05
  1  0.63E-01    102     [NUC-B       21.600]     0.2351E-05    -0.5846E-05
  1  0.14        154     [DOWNTN      230.00]    -0.2356E-05    -0.1356E-04
  1  0.55E-01    102     [NUC-B       21.600]     0.2426E-05    -0.4926E-05
  1  0.78E-01    154     [DOWNTN      230.00]    -0.4507E-05    -0.6377E-05
  1  0.11        205     [SUB230      230.00]    -0.1972E-05    -0.1032E-04
  1  0.80E-01    201     [HYDRO       500.00]     0.3526E-05    -0.7227E-05
  1  0.76E-01    102     [NUC-B       21.600]     0.3123E-05    -0.6943E-05
  1  0.73E-01    206     [URBGEN      18.000]    -0.7135E-06    -0.7280E-05
  1  0.11        205     [SUB230      230.00]    -0.3380E-05    -0.1042E-04
  1  0.69E-01    102     [NUC-B       21.600]     0.1704E-05    -0.6665E-05
  1  0.80E-01   3018     [CATDOG_G    13.800]    -0.7626E-06    -0.8011E-05
  1  0.75E-01    102     [NUC-B       21.600]     0.2346E-05    -0.7122E-05
  1  0.13        154     [DOWNTN      230.00]    -0.1782E-05    -0.1313E-04
  1  0.66E-01    102     [NUC-B       21.600]     0.2215E-05    -0.6260E-05
  1  0.75E-01   3018     [CATDOG_G    13.800]    -0.1284E-05    -0.7429E-05
  1  0.14        154     [DOWNTN      230.00]    -0.4400E-05    -0.1288E-04
  1  0.75E-01    102     [NUC-B       21.600]     0.2597E-05    -0.7064E-05
  1  0.79E-01   3018     [CATDOG_G    13.800]    -0.5000E-06    -0.7928E-05
  1  0.15        154     [DOWNTN      230.00]    -0.3779E-05    -0.1465E-04
  1  0.57E-01    154     [DOWNTN      230.00]     0.7124E-06     0.5650E-05
  1  0.49E-01    154     [DOWNTN      230.00]    -0.3615E-05     0.3345E-05
  1  0.55E-01    211     [HYDRO_G     20.000]     0.2841E-05    -0.4678E-05
  1  0.15        154     [DOWNTN      230.00]     0.1270E-04    -0.8349E-05
  1  0.11        154     [DOWNTN      230.00]     0.4449E-06    -0.1079E-04
  1  0.13        154     [DOWNTN      230.00]    -0.6199E-05    -0.1185E-04
  1  0.92E-01    153     [MID230      230.00]    -0.1820E-05    -0.8971E-05
  1  0.15        205     [SUB230      230.00]    -0.3169E-05    -0.1451E-04
  1  0.74E-01   3011     [MINE_G      13.800]    -0.1106E-06    -0.7360E-05
  1  0.12        154     [DOWNTN      230.00]    -0.3487E-05    -0.1101E-04
  1  0.76E-01   3011     [MINE_G      13.800]     0.6004E-06    -0.7599E-05
  1  0.14        154     [DOWNTN      230.00]    -0.2119E-05    -0.1426E-04
  1  0.76E-01   3011     [MINE_G      13.800]    -0.8258E-06    -0.7508E-05
  1  0.16        154     [DOWNTN      230.00]    -0.7216E-05    -0.1466E-04
  1  0.71E-01   3011     [MINE_G      13.800]     0.7035E-06    -0.7086E-05
  1  0.12        154     [DOWNTN      230.00]    -0.3577E-05    -0.1174E-04
  1  0.10        203     [EAST230     230.00]    -0.1844E-05    -0.9766E-05
  1  0.10        203     [EAST230     230.00]    -0.2890E-05    -0.9310E-05
  1  0.94E-01   3011     [MINE_G      13.800]    -0.1120E-05    -0.9329E-05
  1  0.89E-01   3011     [MINE_G      13.800]    -0.7182E-06    -0.8848E-05
  1  0.84E-01   3011     [MINE_G      13.800]    -0.7497E-07    -0.8437E-05
  1  0.10       3011     [MINE_G      13.800]     0.5136E-07    -0.9583E-05
  1  0.94E-01   3011     [MINE_G      13.800]     0.1248E-06    -0.9372E-05
  1  0.10       3011     [MINE_G      13.800]    -0.4947E-06    -0.9657E-05
  1  0.10       3011     [MINE_G      13.800]    -0.8843E-06    -0.9683E-05
  1  0.10       3011     [MINE_G      13.800]    -0.5569E-06    -0.9655E-05
  1  0.10       3011     [MINE_G      13.800]    -0.3007E-06    -0.9518E-05
  1  0.10       3011     [MINE_G      13.800]    -0.2858E-06    -0.9573E-05
  1  0.92E-01   3011     [MINE_G      13.800]    -0.3512E-06    -0.9206E-05
  1  0.15        205     [SUB230      230.00]    -0.3114E-05    -0.1428E-04
  1  0.65E-01   3011     [MINE_G      13.800]     0.3365E-06    -0.6522E-05
  1  0.82E-01   3011     [MINE_G      13.800]    -0.1291E-05    -0.8139E-05
  1  0.14        154     [DOWNTN      230.00]    -0.2661E-05    -0.1350E-04
  1  0.10       3011     [MINE_G      13.800]     0.2431E-05    -0.9268E-05
  1  0.10       3011     [MINE_G      13.800]     0.8170E-06    -0.9509E-05
  1  0.11        205     [SUB230      230.00]    -0.4117E-05    -0.1012E-04
  1  0.10       3011     [MINE_G      13.800]    -0.1217E-05    -0.9599E-05
  1  0.10       3011     [MINE_G      13.800]    -0.4114E-06    -0.9795E-05
  1  0.10       3011     [MINE_G      13.800]     0.3816E-06    -0.1010E-04
  1  0.10       3011     [MINE_G      13.800]     0.4549E-06    -0.9627E-05
  1  0.10       3011     [MINE_G      13.800]    -0.3654E-06    -0.9684E-05
  1  0.10       3011     [MINE_G      13.800]    -0.7884E-06    -0.9906E-05
  1  0.10       3004     [WEST        500.00]    -0.1319E-05    -0.1014E-04
  1  0.10       3011     [MINE_G      13.800]    -0.1674E-06    -0.1019E-04
  1  0.10       3011     [MINE_G      13.800]    -0.4221E-06    -0.9932E-05
  1  0.10       3011     [MINE_G      13.800]    -0.5522E-06    -0.9687E-05
  1  0.10       3011     [MINE_G      13.800]    -0.4102E-06    -0.9746E-05
  1  0.93E-01   3011     [MINE_G      13.800]    -0.1436E-06    -0.9296E-05
  1  0.92E-01   3011     [MINE_G      13.800]     0.1552E-06    -0.9195E-05
  1  0.11        152     [MID500      500.00]     0.5712E-07    -0.1064E-04
  1  0.91E-01   3011     [MINE_G      13.800]    -0.2499E-06    -0.9146E-05
  1  0.10        152     [MID500      500.00]    -0.7152E-06    -0.1009E-04
  1  0.91E-01   3011     [MINE_G      13.800]    -0.6830E-07    -0.9088E-05
  1  0.10        152     [MID500      500.00]     0.6501E-07    -0.9984E-05
  1  0.86E-01   3011     [MINE_G      13.800]     0.2182E-06    -0.8608E-05
  1  0.10        152     [MID500      500.00]     0.5821E-06    -0.1026E-04
  1  0.95E-01    206     [URBGEN      18.000]    -0.9063E-07    -0.9468E-05
  1  0.10       3018     [CATDOG_G    13.800]    -0.1031E-05    -0.9538E-05
  1  0.10       3018     [CATDOG_G    13.800]    -0.1057E-05    -0.9645E-05
  1  0.10       3018     [CATDOG_G    13.800]    -0.6540E-06    -0.9590E-05
  1  0.93E-01   3011     [MINE_G      13.800]     0.2111E-06    -0.9283E-05
  1  0.90E-01   3011     [MINE_G      13.800]     0.2199E-06    -0.8984E-05
  1  0.12        205     [SUB230      230.00]    -0.1446E-05    -0.1236E-04
  1  0.83E-01   3011     [MINE_G      13.800]     0.2986E-06    -0.8248E-05
  1  0.89E-01   3011     [MINE_G      13.800]    -0.4251E-07    -0.8929E-05
  1  0.10        152     [MID500      500.00]     0.4949E-06    -0.1010E-04
  1  0.92E-01    201     [HYDRO       500.00]     0.1787E-05    -0.9063E-05
  1  0.92E-01    201     [HYDRO       500.00]     0.1235E-05    -0.9092E-05
  1  0.91E-01   3018     [CATDOG_G    13.800]    -0.4249E-06    -0.9132E-05
  1  0.10        201     [HYDRO       500.00]     0.1593E-05    -0.9462E-05
  1  0.91E-01    102     [NUC-B       21.600]     0.3266E-05    -0.8516E-05
  1  0.92E-01    102     [NUC-B       21.600]     0.3127E-05    -0.8607E-05
  1  0.92E-01    201     [HYDRO       500.00]     0.1549E-05    -0.9099E-05
  1  0.10        152     [MID500      500.00]     0.4899E-06    -0.1002E-04
...

 3.0000 -3.35188E-06 -3.38034E-06 -3.38470E-06 -3.40888E-06   1.0164       1.0358
    7     1.0149      0.97465       1512.2       1500.1      6.83594E-03   200.00
   13     1300.1
  1  0.18        205     [SUB230      230.00]    -0.3506E-05    -0.1772E-04
  1  0.86E-01    102     [NUC-B       21.600]     0.3764E-05    -0.7752E-05
  1  0.17        154     [DOWNTN      230.00]    -0.4485E-05    -0.1603E-04
  1  0.91E-01   3011     [MINE_G      13.800]     0.8741E-06    -0.9096E-05
  1  0.20        154     [DOWNTN      230.00]    -0.2662E-05    -0.1969E-04
  1  0.85E-01   3011     [MINE_G      13.800]     0.2125E-06    -0.8473E-05
  1  0.19        154     [DOWNTN      230.00]    -0.8008E-05    -0.1728E-04
  1  0.10       3011     [MINE_G      13.800]     0.1836E-05    -0.9789E-05
  1  0.21        154     [DOWNTN      230.00]     0.5377E-06    -0.2140E-04
  1  0.76E-01   3011     [MINE_G      13.800]    -0.1354E-05    -0.7476E-05
  1  0.20        154     [DOWNTN      230.00]    -0.1578E-04    -0.1227E-04
  1  0.20        154     [DOWNTN      230.00]     0.1466E-04    -0.1310E-04
  1  0.10       3011     [MINE_G      13.800]     0.1342E-05    -0.1029E-04
  1  0.19        205     [SUB230      230.00]    -0.4504E-05    -0.1854E-04
  1  0.93E-01   3011     [MINE_G      13.800]    -0.9729E-06    -0.9251E-05
  1  0.20        154     [DOWNTN      230.00]    -0.8675E-05    -0.1803E-04
  1  0.11       3011     [MINE_G      13.800]     0.1999E-05    -0.1034E-04
  1  0.20        154     [DOWNTN      230.00]     0.7559E-06    -0.2046E-04
  1  0.81E-01   3011     [MINE_G      13.800]    -0.1934E-05    -0.7854E-05
  1  0.16        154     [DOWNTN      230.00]    -0.8410E-05    -0.1319E-04
  1  0.15        205     [SUB230      230.00]     0.5507E-05    -0.1385E-04
  1  0.11       3011     [MINE_G      13.800]     0.6564E-06    -0.1107E-04
  1  0.16        205     [SUB230      230.00]    -0.5098E-05    -0.1515E-04
  1  0.10       3011     [MINE_G      13.800]    -0.2750E-06    -0.9933E-05
  1  0.22        154     [DOWNTN      230.00]    -0.7171E-05    -0.2098E-04
  1  0.93E-01   3011     [MINE_G      13.800]     0.1421E-05    -0.9206E-05
  1  0.17        154     [DOWNTN      230.00]    -0.3858E-05    -0.1624E-04
  1  0.10       3011     [MINE_G      13.800]     0.9288E-07    -0.9726E-05
  1  0.20        154     [DOWNTN      230.00]    -0.6425E-05    -0.1911E-04
  1  0.10       3011     [MINE_G      13.800]     0.1186E-05    -0.9702E-05
  1  0.20        154     [DOWNTN      230.00]    -0.3486E-05    -0.2017E-04
  1  0.88E-01   3011     [MINE_G      13.800]    -0.2643E-06    -0.8779E-05
  1  0.19        154     [DOWNTN      230.00]    -0.9834E-05    -0.1595E-04
  1  0.11       3011     [MINE_G      13.800]     0.2534E-05    -0.1067E-04
  1  0.13        152     [MID500      500.00]     0.1607E-05    -0.1290E-04
  1  0.12        154     [DOWNTN      230.00]    -0.6776E-05    -0.1036E-04
  1  0.10       3011     [MINE_G      13.800]     0.2399E-06    -0.1030E-04
  1  0.17        154     [DOWNTN      230.00]    -0.2422E-05    -0.1700E-04
  1  0.93E-01   3011     [MINE_G      13.800]     0.3965E-06    -0.9278E-05
  1  0.20        154     [DOWNTN      230.00]    -0.6191E-05    -0.1919E-04
  1  0.10       3011     [MINE_G      13.800]     0.1370E-05    -0.9590E-05
  1  0.20        154     [DOWNTN      230.00]    -0.2965E-05    -0.2015E-04
  1  0.82E-01   3011     [MINE_G      13.800]    -0.1808E-06    -0.8246E-05
  1  0.17        154     [DOWNTN      230.00]    -0.9867E-05    -0.1425E-04
  1  0.12        201     [HYDRO       500.00]     0.6472E-05    -0.9844E-05
  1  0.12        201     [HYDRO       500.00]     0.3193E-05    -0.1137E-04
  1  0.13        154     [DOWNTN      230.00]    -0.5611E-05    -0.1164E-04
  1  0.10       3011     [MINE_G      13.800]    -0.2683E-06    -0.1013E-04
  1  0.16        154     [DOWNTN      230.00]    -0.3025E-05    -0.1592E-04
  1  0.93E-01   3011     [MINE_G      13.800]     0.5267E-06    -0.9265E-05
  1  0.20        154     [DOWNTN      230.00]    -0.4368E-05    -0.1984E-04
  1  0.88E-01    102     [NUC-B       21.600]     0.3941E-05    -0.7883E-05
  1  0.18        154     [DOWNTN      230.00]    -0.4932E-05    -0.1691E-04
  1  0.91E-01    102     [NUC-B       21.600]     0.3852E-05    -0.8239E-05
  1  0.18        154     [DOWNTN      230.00]    -0.3009E-05    -0.1824E-04
  1  0.87E-01    102     [NUC-B       21.600]     0.3721E-05    -0.7910E-05
  1  0.19        154     [DOWNTN      230.00]    -0.5735E-05    -0.1780E-04
  1  0.94E-01    102     [NUC-B       21.600]     0.4297E-05    -0.8378E-05
  1  0.20        154     [DOWNTN      230.00]    -0.2205E-05    -0.1963E-04
  1  0.80E-01    102     [NUC-B       21.600]     0.3184E-05    -0.7295E-05
  1  0.16        154     [DOWNTN      230.00]    -0.8385E-05    -0.1391E-04
  1  0.11        201     [HYDRO       500.00]     0.6039E-05    -0.9624E-05
  1  0.13        201     [HYDRO       500.00]     0.3868E-05    -0.1191E-04
  1  0.11        154     [DOWNTN      230.00]    -0.6095E-05    -0.9439E-05
  1  0.15        203     [EAST230     230.00]    -0.3486E-05    -0.1473E-04
  1  0.93E-01    102     [NUC-B       21.600]     0.4282E-05    -0.8298E-05
  1  0.19        154     [DOWNTN      230.00]    -0.2248E-05    -0.1882E-04
  1  0.80E-01    102     [NUC-B       21.600]     0.3491E-05    -0.7248E-05
  1  0.15        154     [DOWNTN      230.00]    -0.6074E-05    -0.1353E-04
  1  0.12        201     [HYDRO       500.00]     0.4300E-05    -0.1151E-04
  1  0.13        202     [EAST500     500.00]     0.1431E-05    -0.1278E-04
  1  0.84E-01    102     [NUC-B       21.600]     0.2656E-05    -0.7950E-05
  1  0.19        154     [DOWNTN      230.00]    -0.7842E-05    -0.1763E-04
  1  0.11        102     [NUC-B       21.600]     0.5677E-05    -0.8920E-05
  1  0.21        154     [DOWNTN      230.00]     0.4494E-05    -0.2029E-04
  1  0.11        154     [DOWNTN      230.00]    -0.9526E-05     0.4933E-05
  1  0.14        154     [DOWNTN      230.00]    -0.7963E-05    -0.1152E-04
  1  0.19        154     [DOWNTN      230.00]     0.7335E-05    -0.1721E-04
  1  0.90E-01    102     [NUC-B       21.600]     0.4660E-05    -0.7717E-05
  1  0.18        154     [DOWNTN      230.00]    -0.4243E-05    -0.1761E-04
  1  0.94E-01    102     [NUC-B       21.600]     0.3922E-05    -0.8498E-05
  1  0.21        154     [DOWNTN      230.00]    -0.3514E-05    -0.2101E-04
  1  0.81E-01    102     [NUC-B       21.600]     0.3837E-05    -0.7180E-05
  1  0.15        154     [DOWNTN      230.00]    -0.6321E-05    -0.1311E-04
  1  0.13        202     [EAST500     500.00]     0.3427E-05    -0.1203E-04
  1  0.12        201     [HYDRO       500.00]     0.2840E-05    -0.1187E-04
  1  0.10        102     [NUC-B       21.600]     0.2699E-05    -0.9220E-05
  1  0.14        205     [SUB230      230.00]    -0.4063E-05    -0.1385E-04
  1  0.11        201     [HYDRO       500.00]     0.2611E-05    -0.1102E-04
  1  0.13        152     [MID500      500.00]     0.3838E-06    -0.1315E-04
  1  0.86E-01    102     [NUC-B       21.600]     0.3197E-05    -0.7973E-05
  1  0.18        154     [DOWNTN      230.00]    -0.5695E-05    -0.1731E-04
  1  0.10        102     [NUC-B       21.600]     0.5147E-05    -0.8623E-05
  1  0.19        154     [DOWNTN      230.00]     0.1349E-05    -0.1895E-04
  1  0.73E-01    102     [NUC-B       21.600]     0.2212E-05    -0.7006E-05
  1  0.18        154     [DOWNTN      230.00]    -0.1293E-04    -0.1317E-04
  1  0.17        154     [DOWNTN      230.00]     0.1300E-04    -0.1136E-04
  1  0.12        102     [NUC-B       21.600]     0.5824E-05    -0.1049E-04
  1  0.12        154     [DOWNTN      230.00]    -0.6246E-05    -0.1030E-04
  1  0.10        102     [NUC-B       21.600]     0.2247E-05    -0.9370E-05
  1  0.17        154     [DOWNTN      230.00]    -0.2930E-05    -0.1649E-04
  1  0.10        102     [NUC-B       21.600]     0.4037E-05    -0.8628E-05
  1  0.20        154     [DOWNTN      230.00]    -0.2185E-05    -0.2019E-04
  1  0.83E-01    102     [NUC-B       21.600]     0.3295E-05    -0.7635E-05
  1  0.18        154     [DOWNTN      230.00]    -0.8241E-05    -0.1621E-04
  1  0.11        102     [NUC-B       21.600]     0.4985E-05    -0.9278E-05
  1  0.13        152     [MID500      500.00]     0.1191E-05    -0.1319E-04
  1  0.13        154     [DOWNTN      230.00]    -0.5872E-05    -0.1138E-04
  1  0.10        102     [NUC-B       21.600]     0.3040E-05    -0.9425E-05
  1  0.15        154     [DOWNTN      230.00]    -0.2281E-05    -0.1494E-04
  1  0.13        206     [URBGEN      18.000]    -0.1119E-05    -0.1275E-04
  1  0.93E-01    102     [NUC-B       21.600]     0.3096E-05    -0.8821E-05
  1  0.21        154     [DOWNTN      230.00]    -0.5696E-05    -0.2003E-04
  1  0.90E-01    102     [NUC-B       21.600]     0.4065E-05    -0.8047E-05
  1  0.17        154     [DOWNTN      230.00]    -0.4193E-05    -0.1663E-04
  1  0.92E-01    102     [NUC-B       21.600]     0.3408E-05    -0.8495E-05
  1  0.20        154     [DOWNTN      230.00]    -0.4847E-05    -0.1903E-04
  1  0.92E-01    102     [NUC-B       21.600]     0.3774E-05    -0.8387E-05
  1  0.20        154     [DOWNTN      230.00]    -0.4911E-05    -0.1945E-04
  1  0.88E-01   3011     [MINE_G      13.800]     0.3091E-06    -0.8802E-05
  1  0.19        154     [DOWNTN      230.00]    -0.6273E-05    -0.1752E-04
  1  0.10       3011     [MINE_G      13.800]     0.1377E-05    -0.9434E-05
  1  0.20        154     [DOWNTN      230.00]    -0.2049E-05    -0.1974E-04
  1  0.84E-01   3011     [MINE_G      13.800]    -0.4328E-06    -0.8439E-05
  1  0.19        154     [DOWNTN      230.00]    -0.1063E-04    -0.1629E-04
  1  0.12        201     [HYDRO       500.00]     0.6332E-05    -0.9644E-05
  1  0.14        152     [MID500      500.00]     0.1917E-05    -0.1355E-04
  1  0.13        154     [DOWNTN      230.00]    -0.8347E-05    -0.1055E-04
  1  0.10       3011     [MINE_G      13.800]     0.2958E-06    -0.1014E-04
  1  0.15        154     [DOWNTN      230.00]    -0.2013E-05    -0.1496E-04
  1  0.13        205     [SUB230      230.00]    -0.3173E-05    -0.1294E-04
  1  0.94E-01   3011     [MINE_G      13.800]     0.1138E-06    -0.9414E-05
  1  0.22        154     [DOWNTN      230.00]    -0.6765E-05    -0.2080E-04
  1  0.92E-01   3011     [MINE_G      13.800]     0.1405E-05    -0.9100E-05
  1  0.18        154     [DOWNTN      230.00]    -0.3706E-05    -0.1713E-04
  1  0.92E-01   3011     [MINE_G      13.800]     0.1246E-06    -0.9194E-05
  1  0.20        154     [DOWNTN      230.00]    -0.6472E-05    -0.1876E-04
  1  0.10       3011     [MINE_G      13.800]     0.1486E-05    -0.9890E-05
  1  0.22        154     [DOWNTN      230.00]    -0.2473E-05    -0.2178E-04
  1  0.79E-01   3011     [MINE_G      13.800]    -0.6628E-06    -0.7910E-05
  1  0.18        154     [DOWNTN      230.00]    -0.1300E-04    -0.1242E-04
  1  0.16        154     [DOWNTN      230.00]     0.1108E-04    -0.1178E-04
  1  0.12        201     [HYDRO       500.00]     0.4525E-05    -0.1089E-04
  1  0.13        154     [DOWNTN      230.00]    -0.6415E-05    -0.1151E-04
  1  0.10       3011     [MINE_G      13.800]    -0.9964E-06    -0.1007E-04
  1  0.17        154     [DOWNTN      230.00]    -0.3838E-05    -0.1667E-04
  1  0.10       3011     [MINE_G      13.800]     0.8833E-06    -0.1012E-04
  1  0.21        154     [DOWNTN      230.00]    -0.2671E-05    -0.2121E-04
  1  0.82E-01   3011     [MINE_G      13.800]    -0.1798E-06    -0.8154E-05
  1  0.18        154     [DOWNTN      230.00]    -0.1066E-04    -0.1394E-04
  1  0.13        202     [EAST500     500.00]     0.7268E-05    -0.1021E-04
  1  0.12        152     [MID500      500.00]     0.2466E-05    -0.1190E-04
  1  0.13        154     [DOWNTN      230.00]    -0.5217E-05    -0.1210E-04
  1  0.10       3011     [MINE_G      13.800]    -0.5656E-06    -0.1009E-04
  1  0.17        154     [DOWNTN      230.00]    -0.4069E-05    -0.1601E-04
  1  0.10       3011     [MINE_G      13.800]     0.8081E-06    -0.9576E-05
  1  0.21        154     [DOWNTN      230.00]    -0.3430E-05    -0.2055E-04
  1  0.83E-01   3011     [MINE_G      13.800]     0.3665E-06    -0.8315E-05
  1  0.17        154     [DOWNTN      230.00]    -0.7620E-05    -0.1536E-04
  1  0.10       3011     [MINE_G      13.800]     0.1782E-05    -0.1009E-04
  1  0.20        154     [DOWNTN      230.00]     0.1248E-05    -0.1970E-04
  1  0.77E-01   3011     [MINE_G      13.800]    -0.1405E-05    -0.7524E-05
  1  0.20        154     [DOWNTN      230.00]    -0.1485E-04    -0.1338E-04
  1  0.18        154     [DOWNTN      230.00]     0.1385E-04    -0.1183E-04
  1  0.12        102     [NUC-B       21.600]     0.5915E-05    -0.9970E-05
  1  0.11        154     [DOWNTN      230.00]    -0.6536E-05    -0.9415E-05
  1  0.13        203     [EAST230     230.00]    -0.5512E-05    -0.1130E-04
  1  0.10        211     [HYDRO_G     20.000]     0.3501E-05    -0.9232E-05
  1  0.14        154     [DOWNTN      230.00]    -0.8524E-06    -0.1438E-04
  1  0.12        206     [URBGEN      18.000]    -0.1266E-05    -0.1227E-04
  1  0.90E-01   3011     [MINE_G      13.800]     0.4414E-07    -0.8993E-05
  1  0.20        154     [DOWNTN      230.00]    -0.5918E-05    -0.1954E-04
  1  0.90E-01    102     [NUC-B       21.600]     0.4396E-05    -0.7866E-05
  1  0.16        154     [DOWNTN      230.00]    -0.2497E-05    -0.1602E-04
  1  0.86E-01    102     [NUC-B       21.600]     0.3299E-05    -0.7936E-05
  1  0.18        154     [DOWNTN      230.00]    -0.5628E-05    -0.1664E-04
  1  0.10        102     [NUC-B       21.600]     0.4416E-05    -0.8881E-05
  1  0.21        154     [DOWNTN      230.00]    -0.7057E-06    -0.2117E-04
  1  0.73E-01    102     [NUC-B       21.600]     0.2533E-05    -0.6840E-05
  1  0.17        154     [DOWNTN      230.00]    -0.1299E-04    -0.1137E-04
  1  0.16        154     [DOWNTN      230.00]     0.1214E-04    -0.1091E-04
  1  0.11        102     [NUC-B       21.600]     0.6071E-05    -0.9760E-05
  1  0.11        154     [DOWNTN      230.00]    -0.4988E-05    -0.9909E-05
  1  0.15        205     [SUB230      230.00]    -0.6384E-05    -0.1407E-04
  1  0.95E-01    102     [NUC-B       21.600]     0.3711E-05    -0.8735E-05
  1  0.22        154     [DOWNTN      230.00]    -0.4013E-05    -0.2153E-04
  1  0.79E-01    102     [NUC-B       21.600]     0.3619E-05    -0.7002E-05
  1  0.13        154     [DOWNTN      230.00]    -0.6835E-05    -0.1061E-04
  1  0.14        203     [EAST230     230.00]     0.2043E-05    -0.1419E-04
  1  0.93E-01    102     [NUC-B       21.600]     0.4640E-05    -0.8047E-05
  1  0.19        154     [DOWNTN      230.00]    -0.1179E-05    -0.1867E-04
  1  0.80E-01    102     [NUC-B       21.600]     0.2905E-05    -0.7499E-05
  1  0.19        154     [DOWNTN      230.00]    -0.9547E-05    -0.1693E-04
  1  0.11        102     [NUC-B       21.600]     0.5616E-05    -0.9229E-05
  1  0.12        152     [MID500      500.00]     0.1858E-05    -0.1221E-04
  1  0.11        154     [DOWNTN      230.00]    -0.6343E-05    -0.9032E-05
  1  0.14        203     [EAST230     230.00]    -0.3079E-05    -0.1369E-04
...

 5.0000 -3.51879E-06 -3.68089E-06 -3.71508E-06 -3.84117E-06   1.0164       1.0358
    7     1.0148      0.97465       1512.2       1500.1      7.69043E-03   200.00
   13     1300.1
  1  0.17        154     [DOWNTN      230.00]    -0.5650E-05    -0.1655E-04
  1  0.93E-01   3011     [MINE_G      13.800]     0.1207E-05    -0.9211E-05
  1  0.20        154     [DOWNTN      230.00]    -0.2017E-05    -0.2034E-04
  1  0.81E-01   3011     [MINE_G      13.800]    -0.3332E-06    -0.8061E-05
  1  0.19        154     [DOWNTN      230.00]    -0.1067E-04    -0.1512E-04
  1  0.11        201     [HYDRO       500.00]     0.6340E-05    -0.9307E-05
  1  0.13        152     [MID500      500.00]     0.2155E-05    -0.1271E-04
  1  0.12        154     [DOWNTN      230.00]    -0.7704E-05    -0.9584E-05
  1  0.10       3011     [MINE_G      13.800]     0.1670E-06    -0.9826E-05
  1  0.18        154     [DOWNTN      230.00]    -0.2643E-05    -0.1782E-04
  1  0.84E-01   3011     [MINE_G      13.800]     0.3114E-06    -0.8438E-05
  1  0.17        154     [DOWNTN      230.00]    -0.6221E-05    -0.1624E-04
  1  0.10       3011     [MINE_G      13.800]     0.1544E-05    -0.9430E-05
  1  0.21        154     [DOWNTN      230.00]    -0.2632E-06    -0.2058E-04
  1  0.76E-01   3011     [MINE_G      13.800]    -0.9775E-06    -0.7495E-05
  1  0.19        154     [DOWNTN      230.00]    -0.1339E-04    -0.1285E-04
  1  0.16        154     [DOWNTN      230.00]     0.1211E-04    -0.1047E-04
  1  0.11        102     [NUC-B       21.600]     0.5347E-05    -0.9947E-05
  1  0.13        154     [DOWNTN      230.00]    -0.5898E-05    -0.1109E-04
  1  0.94E-01   3011     [MINE_G      13.800]    -0.9227E-06    -0.9335E-05
  1  0.17        154     [DOWNTN      230.00]    -0.3454E-05    -0.1632E-04
  1  0.10       3011     [MINE_G      13.800]     0.9097E-06    -0.9618E-05
  1  0.21        154     [DOWNTN      230.00]    -0.2725E-05    -0.2113E-04
  1  0.73E-01   3011     [MINE_G      13.800]    -0.2380E-06    -0.7346E-05
  1  0.16        154     [DOWNTN      230.00]    -0.1057E-04    -0.1183E-04
  1  0.14        203     [EAST230     230.00]     0.7292E-05    -0.1171E-04
  1  0.12        201     [HYDRO       500.00]     0.4029E-05    -0.1097E-04
  1  0.13        154     [DOWNTN      230.00]    -0.5170E-05    -0.1195E-04
  1  0.92E-01   3011     [MINE_G      13.800]    -0.8288E-06    -0.9132E-05
  1  0.16        154     [DOWNTN      230.00]    -0.4375E-05    -0.1532E-04
  1  0.10       3011     [MINE_G      13.800]     0.1046E-05    -0.9487E-05
  1  0.20        154     [DOWNTN      230.00]    -0.1656E-05    -0.2041E-04
  1  0.75E-01   3011     [MINE_G      13.800]    -0.3228E-06    -0.7526E-05
  1  0.17        154     [DOWNTN      230.00]    -0.1099E-04    -0.1337E-04
  1  0.12        204     [SUB500      500.00]     0.8244E-05    -0.9368E-05
  1  0.11        201     [HYDRO       500.00]     0.3610E-05    -0.1070E-04
  1  0.12        154     [DOWNTN      230.00]    -0.5255E-05    -0.1059E-04
  1  0.10       3011     [MINE_G      13.800]    -0.5855E-06    -0.9764E-05
  1  0.17        205     [SUB230      230.00]    -0.2915E-05    -0.1639E-04
  1  0.86E-01   3011     [MINE_G      13.800]     0.2538E-06    -0.8577E-05
  1  0.19        154     [DOWNTN      230.00]    -0.5000E-05    -0.1822E-04
  1  0.85E-01    102     [NUC-B       21.600]     0.3923E-05    -0.7541E-05
  1  0.17        154     [DOWNTN      230.00]    -0.2968E-05    -0.1624E-04
  1  0.86E-01    102     [NUC-B       21.600]     0.3182E-05    -0.7994E-05
  1  0.19        154     [DOWNTN      230.00]    -0.5614E-05    -0.1782E-04
  1  0.93E-01    102     [NUC-B       21.600]     0.3866E-05    -0.8422E-05
  1  0.20        154     [DOWNTN      230.00]    -0.3121E-05    -0.1942E-04
  1  0.80E-01    102     [NUC-B       21.600]     0.2885E-05    -0.7458E-05
  1  0.17        154     [DOWNTN      230.00]    -0.8986E-05    -0.1443E-04
  1  0.10        211     [HYDRO_G     20.000]     0.4902E-05    -0.8975E-05
  1  0.12        201     [HYDRO       500.00]     0.2993E-05    -0.1113E-04
  1  0.11        206     [URBGEN      18.000]    -0.2693E-05    -0.1035E-04
  1  0.15        203     [EAST230     230.00]    -0.3144E-05    -0.1418E-04
  1  0.90E-01    102     [NUC-B       21.600]     0.3827E-05    -0.8108E-05
  1  0.19        154     [DOWNTN      230.00]    -0.3202E-05    -0.1908E-04
  1  0.78E-01    102     [NUC-B       21.600]     0.3326E-05    -0.7070E-05
  1  0.15        154     [DOWNTN      230.00]    -0.6723E-05    -0.1330E-04
  1  0.12        201     [HYDRO       500.00]     0.3500E-05    -0.1104E-04
  1  0.12        152     [MID500      500.00]     0.1285E-05    -0.1201E-04
  1  0.12        206     [URBGEN      18.000]    -0.1794E-05    -0.1142E-04
  1  0.84E-01    102     [NUC-B       21.600]     0.2812E-05    -0.7898E-05
  1  0.18        154     [DOWNTN      230.00]    -0.5808E-05    -0.1680E-04
  1  0.93E-01    102     [NUC-B       21.600]     0.4571E-05    -0.8099E-05
  1  0.18        154     [DOWNTN      230.00]     0.5600E-06    -0.1754E-04
  1  0.73E-01    102     [NUC-B       21.600]     0.2314E-05    -0.6917E-05
  1  0.17        154     [DOWNTN      230.00]    -0.1107E-04    -0.1343E-04
  1  0.14        154     [DOWNTN      230.00]     0.1018E-04    -0.9263E-05
  1  0.11        201     [HYDRO       500.00]     0.4177E-05    -0.1035E-04
  1  0.11        154     [DOWNTN      230.00]    -0.4884E-05    -0.9496E-05
  1  0.15        203     [EAST230     230.00]    -0.4586E-05    -0.1441E-04
  1  0.88E-01    102     [NUC-B       21.600]     0.3537E-05    -0.8086E-05
  1  0.20        154     [DOWNTN      230.00]    -0.4279E-05    -0.1914E-04
  1  0.79E-01    102     [NUC-B       21.600]     0.3751E-05    -0.6909E-05
  1  0.13        154     [DOWNTN      230.00]    -0.4577E-05    -0.1196E-04
  1  0.13        203     [EAST230     230.00]     0.7429E-06    -0.1336E-04
  1  0.86E-01    102     [NUC-B       21.600]     0.3677E-05    -0.7820E-05
  1  0.18        154     [DOWNTN      230.00]    -0.4148E-05    -0.1763E-04
  1  0.88E-01    102     [NUC-B       21.600]     0.3677E-05    -0.8034E-05
  1  0.18        154     [DOWNTN      230.00]    -0.4052E-05    -0.1765E-04
  1  0.84E-01    102     [NUC-B       21.600]     0.3290E-05    -0.7719E-05
  1  0.17        154     [DOWNTN      230.00]    -0.5084E-05    -0.1615E-04
  1  0.88E-01    102     [NUC-B       21.600]     0.4144E-05    -0.7792E-05
  1  0.16        154     [DOWNTN      230.00]    -0.9604E-06    -0.1586E-04
  1  0.80E-01    102     [NUC-B       21.600]     0.2971E-05    -0.7424E-05
  1  0.17        154     [DOWNTN      230.00]    -0.6185E-05    -0.1551E-04
  1  0.10        102     [NUC-B       21.600]     0.4586E-05    -0.8726E-05
  1  0.21        154     [DOWNTN      230.00]     0.1273E-05    -0.2074E-04
  1  0.73E-01    154     [DOWNTN      230.00]    -0.6319E-05     0.3746E-05
  1  0.15        154     [DOWNTN      230.00]    -0.1105E-04    -0.1013E-04
  1  0.16        154     [DOWNTN      230.00]     0.8253E-05    -0.1404E-04
  1  0.10        102     [NUC-B       21.600]     0.5288E-05    -0.9070E-05
  1  0.12        205     [SUB230      230.00]    -0.3526E-05    -0.1169E-04
  1  0.14        205     [SUB230      230.00]    -0.5814E-05    -0.1235E-04
  1  0.89E-01    102     [NUC-B       21.600]     0.3510E-05    -0.8174E-05
  1  0.19        154     [DOWNTN      230.00]    -0.2484E-05    -0.1915E-04
  1  0.77E-01    102     [NUC-B       21.600]     0.3482E-05    -0.6827E-05
  1  0.14        154     [DOWNTN      230.00]    -0.7140E-05    -0.1226E-04
  1  0.14        154     [DOWNTN      230.00]     0.1559E-05    -0.1424E-04
  1  0.86E-01    102     [NUC-B       21.600]     0.4003E-05    -0.7648E-05
  1  0.17        154     [DOWNTN      230.00]    -0.3327E-05    -0.1644E-04
  1  0.83E-01    102     [NUC-B       21.600]     0.3284E-05    -0.7656E-05
  1  0.18        154     [DOWNTN      230.00]    -0.5071E-05    -0.1724E-04
  1  0.88E-01    102     [NUC-B       21.600]     0.3827E-05    -0.7894E-05
  1  0.18        154     [DOWNTN      230.00]    -0.2574E-05    -0.1818E-04
  1  0.78E-01    102     [NUC-B       21.600]     0.3025E-05    -0.7150E-05
  1  0.16        154     [DOWNTN      230.00]    -0.7239E-05    -0.1404E-04
  1  0.10        102     [NUC-B       21.600]     0.4634E-05    -0.9024E-05
  1  0.12        204     [SUB500      500.00]     0.1217E-05    -0.1170E-04
  1  0.11        154     [DOWNTN      230.00]    -0.5230E-05    -0.1024E-04
  1  0.11        152     [MID500      500.00]    -0.1226E-05    -0.1051E-04
  1  0.15        205     [SUB230      230.00]    -0.2088E-05    -0.1487E-04
  1  0.80E-01    102     [NUC-B       21.600]     0.3043E-05    -0.7380E-05
  1  0.15        154     [DOWNTN      230.00]    -0.5229E-05    -0.1373E-04
  1  0.11        201     [HYDRO       500.00]     0.3481E-05    -0.1040E-04
  1  0.12        202     [EAST500     500.00]     0.6790E-06    -0.1217E-04
  1  0.94E-01   3011     [MINE_G      13.800]    -0.9954E-06    -0.9386E-05
  1  0.14        205     [SUB230      230.00]    -0.3903E-05    -0.1362E-04
  1  0.10       3011     [MINE_G      13.800]     0.5442E-06    -0.1002E-04
  1  0.12        152     [MID500      500.00]    -0.1311E-06    -0.1217E-04
  1  0.11        206     [URBGEN      18.000]    -0.1344E-05    -0.1121E-04
  1  0.10       3011     [MINE_G      13.800]    -0.2454E-06    -0.1013E-04
  1  0.13        205     [SUB230      230.00]    -0.2744E-05    -0.1307E-04
  1  0.10       3011     [MINE_G      13.800]    -0.3475E-07    -0.9547E-05
  1  0.11       3018     [CATDOG_G    13.800]    -0.1162E-05    -0.1090E-04
  1  0.12        203     [EAST230     230.00]    -0.7878E-06    -0.1194E-04
  1  0.10       3011     [MINE_G      13.800]     0.7555E-07    -0.9750E-05
  1  0.13        205     [SUB230      230.00]    -0.2993E-05    -0.1291E-04
  1  0.10       3011     [MINE_G      13.800]    -0.1412E-06    -0.1003E-04
  1  0.12        203     [EAST230     230.00]    -0.1445E-05    -0.1196E-04
  1  0.11        206     [URBGEN      18.000]    -0.8730E-06    -0.1136E-04
  1  0.13        203     [EAST230     230.00]    -0.1696E-05    -0.1286E-04
  1  0.82E-01   3011     [MINE_G      13.800]     0.3345E-06    -0.8168E-05
  1  0.16        154     [DOWNTN      230.00]    -0.5217E-05    -0.1460E-04
  1  0.92E-01    102     [NUC-B       21.600]     0.4182E-05    -0.8217E-05
  1  0.19        154     [DOWNTN      230.00]     0.2535E-06    -0.1882E-04
  1  0.76E-01   3011     [MINE_G      13.800]    -0.9051E-06    -0.7596E-05
  1  0.18        154     [DOWNTN      230.00]    -0.1140E-04    -0.1399E-04
  1  0.13        154     [DOWNTN      230.00]     0.9259E-05    -0.8879E-05
  1  0.11        201     [HYDRO       500.00]     0.3648E-05    -0.1046E-04
  1  0.11        154     [DOWNTN      230.00]    -0.4686E-05    -0.9916E-05
  1  0.15        203     [EAST230     230.00]    -0.4449E-05    -0.1433E-04
  1  0.87E-01   3011     [MINE_G      13.800]     0.5120E-06    -0.8665E-05
  1  0.20        154     [DOWNTN      230.00]    -0.5179E-05    -0.1881E-04
  1  0.80E-01    102     [NUC-B       21.600]     0.3688E-05    -0.7104E-05
  1  0.14        154     [DOWNTN      230.00]    -0.4229E-05    -0.1344E-04
  1  0.12        206     [URBGEN      18.000]     0.3253E-06    -0.1171E-04
  1  0.10       3011     [MINE_G      13.800]    -0.7529E-07    -0.1019E-04
  1  0.14        205     [SUB230      230.00]    -0.3279E-05    -0.1354E-04
  1  0.10       3011     [MINE_G      13.800]    -0.2507E-06    -0.9512E-05
  1  0.11        152     [MID500      500.00]    -0.9481E-06    -0.1145E-04
  1  0.12        203     [EAST230     230.00]    -0.5600E-06    -0.1241E-04
  1  0.95E-01   3011     [MINE_G      13.800]     0.2689E-07    -0.9468E-05
  1  0.12        205     [SUB230      230.00]    -0.2656E-05    -0.1202E-04
  1  0.11        206     [URBGEN      18.000]    -0.6121E-06    -0.1125E-04
  1  0.11        202     [EAST500     500.00]    -0.5454E-06    -0.1146E-04
  1  0.11       3018     [CATDOG_G    13.800]    -0.1222E-05    -0.1077E-04
  1  0.11        203     [EAST230     230.00]    -0.2395E-05    -0.1121E-04
  1  0.11       3018     [CATDOG_G    13.800]    -0.1258E-05    -0.1072E-04
  1  0.11       3018     [CATDOG_G    13.800]    -0.1118E-05    -0.1109E-04
  1  0.10       3011     [MINE_G      13.800]     0.8890E-08    -0.1037E-04
  1  0.10       3011     [MINE_G      13.800]    -0.5284E-09    -0.1049E-04
  1  0.11       3018     [CATDOG_G    13.800]    -0.8344E-06    -0.1073E-04
  1  0.10       3011     [MINE_G      13.800]    -0.1720E-06    -0.1041E-04
  1  0.11        152     [MID500      500.00]    -0.8422E-07    -0.1102E-04
  1  0.11       3018     [CATDOG_G    13.800]    -0.8463E-06    -0.1084E-04
  1  0.11        152     [MID500      500.00]    -0.9243E-06    -0.1110E-04
  1  0.11        152     [MID500      500.00]    -0.3518E-06    -0.1139E-04
  1  0.10       3011     [MINE_G      13.800]    -0.1488E-06    -0.1037E-04
  1  0.11       3011     [MINE_G      13.800]    -0.2133E-06    -0.1052E-04
  1  0.11       3011     [MINE_G      13.800]     0.2249E-06    -0.1063E-04
  1  0.10       3011     [MINE_G      13.800]     0.1252E-06    -0.1020E-04
  1  0.11        201     [HYDRO       500.00]     0.1292E-05    -0.1063E-04
  1  0.11        202     [EAST500     500.00]     0.2558E-06    -0.1149E-04
  1  0.11        206     [URBGEN      18.000]    -0.7062E-06    -0.1079E-04
  1  0.12        203     [EAST230     230.00]    -0.2072E-05    -0.1140E-04
  1  0.91E-01   3011     [MINE_G      13.800]     0.3073E-06    -0.9110E-05
  1  0.14        205     [SUB230      230.00]    -0.2351E-05    -0.1415E-04
  1  0.84E-01    102     [NUC-B       21.600]     0.4033E-05    -0.7317E-05
  1  0.13        154     [DOWNTN      230.00]    -0.1179E-05    -0.1308E-04
  1  0.12        201     [HYDRO       500.00]     0.2609E-05    -0.1129E-04
  1  0.13        203     [EAST230     230.00]    -0.1684E-05    -0.1242E-04
  1  0.81E-01    102     [NUC-B       21.600]     0.2926E-05    -0.7584E-05
  1  0.17        154     [DOWNTN      230.00]    -0.6676E-05    -0.1543E-04
  1  0.10        102     [NUC-B       21.600]     0.5272E-05    -0.8610E-05
  1  0.19        154     [DOWNTN      230.00]     0.4291E-05    -0.1805E-04
  1  0.88E-01    154     [DOWNTN      230.00]    -0.7983E-05     0.3606E-05
  1  0.15        154     [DOWNTN      230.00]    -0.1041E-04    -0.1065E-04
  1  0.19        154     [DOWNTN      230.00]     0.7363E-05    -0.1750E-04
  1  0.90E-01    102     [NUC-B       21.600]     0.5168E-05    -0.7393E-05
  1  0.16        154     [DOWNTN      230.00]    -0.1800E-05    -0.1635E-04
  1  0.83E-01    102     [NUC-B       21.600]     0.2935E-05    -0.7816E-05
  1  0.20        154     [DOWNTN      230.00]    -0.7076E-05    -0.1872E-04
  1  0.10        102     [NUC-B       21.600]     0.5016E-05    -0.8220E-05
  1  0.19        154     [DOWNTN      230.00]     0.1117E-05    -0.1848E-04
  1  0.67E-01    102     [NUC-B       21.600]     0.2186E-05    -0.6369E-05
  1  0.16        154     [DOWNTN      230.00]    -0.1220E-04    -0.9891E-05
  1  0.18        154     [DOWNTN      230.00]     0.1276E-04    -0.1297E-04
...

 7.0000 -3.26247E-06 -3.24159E-06 -3.23085E-06 -3.19269E-06   1.0164       1.0358
    7     1.0148      0.97464       1512.2       1500.1     -1.12305E-02   200.00
   13     1300.1
  1  0.80E-01   3011     [MINE_G      13.800]    -0.5156E-06    -0.7991E-05
  1  0.17        154     [DOWNTN      230.00]    -0.8927E-05    -0.1399E-04
  1  0.12        201     [HYDRO       500.00]     0.5859E-05    -0.1008E-04
  1  0.12       3018     [CATDOG_G    13.800]     0.7310E-06    -0.1188E-04
  1  0.13        205     [SUB230      230.00]    -0.5194E-05    -0.1154E-04
  1  0.95E-01   3011     [MINE_G      13.800]    -0.2204E-06    -0.9494E-05
  1  0.18        154     [DOWNTN      230.00]    -0.4372E-05    -0.1758E-04
  1  0.90E-01   3011     [MINE_G      13.800]     0.6480E-06    -0.8989E-05
  1  0.19        154     [DOWNTN      230.00]    -0.4503E-05    -0.1841E-04
  1  0.86E-01   3011     [MINE_G      13.800]     0.7975E-06    -0.8558E-05
  1  0.17        154     [DOWNTN      230.00]    -0.4923E-05    -0.1638E-04
  1  0.91E-01   3011     [MINE_G      13.800]     0.8336E-06    -0.9054E-05
  1  0.19        154     [DOWNTN      230.00]    -0.3185E-05    -0.1890E-04
  1  0.85E-01   3011     [MINE_G      13.800]     0.9637E-07    -0.8511E-05
  1  0.19        154     [DOWNTN      230.00]    -0.8074E-05    -0.1711E-04
  1  0.10       3011     [MINE_G      13.800]     0.1854E-05    -0.9464E-05
  1  0.20        154     [DOWNTN      230.00]     0.3622E-06    -0.1990E-04
  1  0.72E-01   3011     [MINE_G      13.800]    -0.1364E-05    -0.7085E-05
  1  0.17        154     [DOWNTN      230.00]    -0.1412E-04    -0.1011E-04
  1  0.19        154     [DOWNTN      230.00]     0.1341E-04    -0.1329E-04
  1  0.10        102     [NUC-B       21.600]     0.5086E-05    -0.8698E-05
  1  0.17        205     [SUB230      230.00]    -0.3111E-05    -0.1711E-04
  1  0.87E-01   3011     [MINE_G      13.800]    -0.1028E-05    -0.8594E-05
  1  0.19        154     [DOWNTN      230.00]    -0.8424E-05    -0.1740E-04
  1  0.10        102     [NUC-B       21.600]     0.4950E-05    -0.8254E-05
  1  0.19        154     [DOWNTN      230.00]     0.2847E-05    -0.1855E-04
  1  0.85E-01    154     [DOWNTN      230.00]    -0.7734E-05     0.3519E-05
  1  0.16        154     [DOWNTN      230.00]    -0.1114E-04    -0.1083E-04
  1  0.18        154     [DOWNTN      230.00]     0.9287E-05    -0.1541E-04
  1  0.87E-01    102     [NUC-B       21.600]     0.4200E-05    -0.7575E-05
  1  0.19        154     [DOWNTN      230.00]    -0.4466E-05    -0.1868E-04
  1  0.87E-01   3011     [MINE_G      13.800]     0.3342E-06    -0.8674E-05
  1  0.21        154     [DOWNTN      230.00]    -0.6494E-05    -0.2001E-04
  1  0.82E-01    102     [NUC-B       21.600]     0.4027E-05    -0.7163E-05
  1  0.14        154     [DOWNTN      230.00]    -0.3632E-05    -0.1307E-04
  1  0.13        203     [EAST230     230.00]    -0.4005E-06    -0.1260E-04
  1  0.83E-01    102     [NUC-B       21.600]     0.3264E-05    -0.7592E-05
  1  0.17        154     [DOWNTN      230.00]    -0.4786E-05    -0.1642E-04
  1  0.90E-01    102     [NUC-B       21.600]     0.4034E-05    -0.8060E-05
  1  0.18        154     [DOWNTN      230.00]    -0.2110E-05    -0.1833E-04
  1  0.78E-01    102     [NUC-B       21.600]     0.2765E-05    -0.7261E-05
  1  0.17        154     [DOWNTN      230.00]    -0.8330E-05    -0.1466E-04
  1  0.10        102     [NUC-B       21.600]     0.5101E-05    -0.8518E-05
  1  0.20        154     [DOWNTN      230.00]     0.5173E-05    -0.1916E-04
  1  0.11        154     [DOWNTN      230.00]    -0.9719E-05     0.5376E-05
  1  0.14        154     [DOWNTN      230.00]    -0.8521E-05    -0.1071E-04
  1  0.18        154     [DOWNTN      230.00]     0.7166E-05    -0.1703E-04
  1  0.84E-01    102     [NUC-B       21.600]     0.4337E-05    -0.7249E-05
  1  0.18        154     [DOWNTN      230.00]    -0.4132E-05    -0.1742E-04
  1  0.84E-01    102     [NUC-B       21.600]     0.3272E-05    -0.7705E-05
  1  0.19        154     [DOWNTN      230.00]    -0.4951E-05    -0.1864E-04
  1  0.82E-01    102     [NUC-B       21.600]     0.3875E-05    -0.7246E-05
  1  0.15        154     [DOWNTN      230.00]    -0.3072E-05    -0.1502E-04
  1  0.10        102     [NUC-B       21.600]     0.3255E-05    -0.9227E-05
  1  0.12        203     [EAST230     230.00]    -0.2079E-05    -0.1192E-04
  1  0.12        205     [SUB230      230.00]    -0.2716E-05    -0.1146E-04
  1  0.86E-01    102     [NUC-B       21.600]     0.3252E-05    -0.7979E-05
  1  0.18        154     [DOWNTN      230.00]    -0.4366E-05    -0.1719E-04
  1  0.84E-01    102     [NUC-B       21.600]     0.3789E-05    -0.7480E-05
  1  0.16        154     [DOWNTN      230.00]    -0.3129E-05    -0.1552E-04
  1  0.85E-01    102     [NUC-B       21.600]     0.3513E-05    -0.7712E-05
  1  0.17        154     [DOWNTN      230.00]    -0.3637E-05    -0.1646E-04
  1  0.87E-01    102     [NUC-B       21.600]     0.3743E-05    -0.7799E-05
  1  0.17        154     [DOWNTN      230.00]    -0.3431E-05    -0.1695E-04
  1  0.82E-01    102     [NUC-B       21.600]     0.3319E-05    -0.7488E-05
  1  0.17        154     [DOWNTN      230.00]    -0.4631E-05    -0.1591E-04
  1  0.87E-01    102     [NUC-B       21.600]     0.3887E-05    -0.7834E-05
  1  0.17        154     [DOWNTN      230.00]    -0.1390E-05    -0.1729E-04
  1  0.78E-01    102     [NUC-B       21.600]     0.2888E-05    -0.7253E-05
  1  0.17        154     [DOWNTN      230.00]    -0.7366E-05    -0.1485E-04
  1  0.10        102     [NUC-B       21.600]     0.4812E-05    -0.8622E-05
  1  0.16        154     [DOWNTN      230.00]     0.1384E-05    -0.1580E-04
  1  0.88E-01   3011     [MINE_G      13.800]    -0.1240E-05    -0.8698E-05
  1  0.14        154     [DOWNTN      230.00]    -0.6037E-05    -0.1228E-04
  1  0.10        102     [NUC-B       21.600]     0.3824E-05    -0.9377E-05
  1  0.13        203     [EAST230     230.00]     0.1499E-06    -0.1256E-04
  1  0.11        206     [URBGEN      18.000]    -0.1836E-05    -0.1038E-04
  1  0.12        203     [EAST230     230.00]    -0.3076E-05    -0.1181E-04
  1  0.85E-01    102     [NUC-B       21.600]     0.3472E-05    -0.7726E-05
  1  0.16        154     [DOWNTN      230.00]    -0.2412E-05    -0.1574E-04
  1  0.82E-01    102     [NUC-B       21.600]     0.3246E-05    -0.7584E-05
  1  0.17        154     [DOWNTN      230.00]    -0.4112E-05    -0.1668E-04
  1  0.86E-01    102     [NUC-B       21.600]     0.3712E-05    -0.7756E-05
  1  0.18        154     [DOWNTN      230.00]    -0.3096E-05    -0.1768E-04
  1  0.79E-01    102     [NUC-B       21.600]     0.3098E-05    -0.7273E-05
  1  0.16        154     [DOWNTN      230.00]    -0.5803E-05    -0.1498E-04
  1  0.95E-01    102     [NUC-B       21.600]     0.4102E-05    -0.8530E-05
  1  0.19        154     [DOWNTN      230.00]     0.6362E-06    -0.1909E-04
  1  0.68E-01   3011     [MINE_G      13.800]    -0.8444E-06    -0.6708E-05
  1  0.17        154     [DOWNTN      230.00]    -0.1259E-04    -0.1133E-04
  1  0.16        154     [DOWNTN      230.00]     0.1150E-04    -0.1157E-04
  1  0.11        102     [NUC-B       21.600]     0.5423E-05    -0.9648E-05
  1  0.12        203     [EAST230     230.00]    -0.4621E-05    -0.1120E-04
  1  0.89E-01   3011     [MINE_G      13.800]    -0.1128E-05    -0.8788E-05
  1  0.16        154     [DOWNTN      230.00]    -0.3726E-05    -0.1529E-04
  1  0.90E-01    102     [NUC-B       21.600]     0.3888E-05    -0.8068E-05
  1  0.19        154     [DOWNTN      230.00]    -0.1300E-05    -0.1899E-04
  1  0.73E-01    102     [NUC-B       21.600]     0.2627E-05    -0.6827E-05
  1  0.17        154     [DOWNTN      230.00]    -0.9819E-05    -0.1375E-04
  1  0.12        202     [EAST500     500.00]     0.6478E-05    -0.9526E-05
  1  0.11        201     [HYDRO       500.00]     0.3038E-05    -0.1078E-04
  1  0.11        154     [DOWNTN      230.00]    -0.5856E-05    -0.9800E-05
  1  0.11        203     [EAST230     230.00]    -0.2907E-05    -0.1097E-04
  1  0.14        205     [SUB230      230.00]    -0.3547E-05    -0.1337E-04
  1  0.85E-01    102     [NUC-B       21.600]     0.3428E-05    -0.7753E-05
  1  0.18        154     [DOWNTN      230.00]    -0.4023E-05    -0.1711E-04
  1  0.79E-01    102     [NUC-B       21.600]     0.3297E-05    -0.7151E-05
  1  0.15        154     [DOWNTN      230.00]    -0.4625E-05    -0.1406E-04
  1  0.11        201     [HYDRO       500.00]     0.2309E-05    -0.1029E-04
  1  0.12        203     [EAST230     230.00]    -0.1469E-05    -0.1239E-04
  1  0.10       3011     [MINE_G      13.800]    -0.8886E-06    -0.9466E-05
  1  0.13        205     [SUB230      230.00]    -0.3410E-05    -0.1304E-04
  1  0.10       3011     [MINE_G      13.800]     0.4977E-06    -0.1005E-04
  1  0.11        203     [EAST230     230.00]    -0.1306E-05    -0.1126E-04
  1  0.11        206     [URBGEN      18.000]    -0.1100E-05    -0.1082E-04
  1  0.13        203     [EAST230     230.00]    -0.2216E-05    -0.1237E-04
  1  0.83E-01   3011     [MINE_G      13.800]     0.2312E-06    -0.8263E-05
  1  0.16        154     [DOWNTN      230.00]    -0.4874E-05    -0.1548E-04
  1  0.89E-01   3011     [MINE_G      13.800]     0.1223E-05    -0.8808E-05
  1  0.18        154     [DOWNTN      230.00]    -0.9966E-06    -0.1807E-04
  1  0.73E-01   3011     [MINE_G      13.800]    -0.5173E-06    -0.7299E-05
  1  0.16        154     [DOWNTN      230.00]    -0.9698E-05    -0.1317E-04
  1  0.12        202     [EAST500     500.00]     0.6714E-05    -0.9726E-05
  1  0.11        201     [HYDRO       500.00]     0.3234E-05    -0.1048E-04
  1  0.12        154     [DOWNTN      230.00]    -0.4859E-05    -0.1043E-04
  1  0.11        203     [EAST230     230.00]    -0.3277E-05    -0.1060E-04
...